22634411
  -OEChem-04122511142D

 64 66  0     0  0  0  0  0  0999 V2000
    9.8744    1.7198    0.0000 S   0  0  0  0  0  0  0  0  0  0  0  0
   11.4580   -0.8170    0.0000 O   0  0  0  0  0  0  0  0  0  0  0  0
    6.3301    2.9151    0.0000 O   0  0  0  0  0  0  0  0  0  0  0  0
   12.9580    0.0490    0.0000 N   0  0  0  0  0  0  0  0  0  0  0  0
   11.4580    0.9151    0.0000 N   0  0  0  0  0  0  0  0  0  0  0  0
    5.4641    1.4151    0.0000 N   0  0  0  0  0  0  0  0  0  0  0  0
    9.8744    0.1103    0.0000 N   0  0  0  0  0  0  0  0  0  0  0  0
   13.4580   -0.8170    0.0000 C   0  0  0  0  0  0  0  0  0  0  0  0
   14.4580   -0.8170    0.0000 C   0  0  0  0  0  0  0  0  0  0  0  0
   12.9580   -1.6830    0.0000 C   0  0  0  0  0  0  0  0  0  0  0  0
   14.9580   -1.6830    0.0000 C   0  0  0  0  0  0  0  0  0  0  0  0
   13.4580   -2.5490    0.0000 C   0  0  0  0  0  0  0  0  0  0  0  0
   15.9580   -1.6830    0.0000 C   0  0  0  0  0  0  0  0  0  0  0  0
   12.9580   -3.4151    0.0000 C   0  0  0  0  0  0  0  0  0  0  0  0
   11.9580    0.0490    0.0000 C   0  0  0  0  0  0  0  0  0  0  0  0
   10.4580    0.9151    0.0000 C   0  0  0  0  0  0  0  0  0  0  0  0
    4.5981    1.9151    0.0000 C   0  0  0  0  0  0  0  0  0  0  0  0
    3.7320    1.4151    0.0000 C   0  0  0  0  0  0  0  0  0  0  0  0
    4.5981    2.9151    0.0000 C   0  0  0  0  0  0  0  0  0  0  0  0
    8.9282    1.4151    0.0000 C   0  0  0  0  0  0  0  0  0  0  0  0
    8.9282    0.4151    0.0000 C   0  0  0  0  0  0  0  0  0  0  0  0
    2.8660    2.9151    0.0000 C   0  0  0  0  0  0  0  0  0  0  0  0
    7.1962    1.4151    0.0000 C   0  0  0  0  0  0  0  0  0  0  0  0
    2.8660    1.9151    0.0000 C   0  0  0  0  0  0  0  0  0  0  0  0
    3.7320    3.4151    0.0000 C   0  0  0  0  0  0  0  0  0  0  0  0
    8.0622    1.9151    0.0000 C   0  0  0  0  0  0  0  0  0  0  0  0
    6.3301    1.9151    0.0000 C   0  0  0  0  0  0  0  0  0  0  0  0
    8.0622   -0.0849    0.0000 C   0  0  0  0  0  0  0  0  0  0  0  0
    7.1962    0.4151    0.0000 C   0  0  0  0  0  0  0  0  0  0  0  0
    3.7320    0.4151    0.0000 C   0  0  0  0  0  0  0  0  0  0  0  0
    5.4641    3.4151    0.0000 C   0  0  0  0  0  0  0  0  0  0  0  0
    2.0000    3.4151    0.0000 C   0  0  0  0  0  0  0  0  0  0  0  0
   12.8380   -0.8170    0.0000 H   0  0  0  0  0  0  0  0  0  0  0  0
   15.0406   -0.6049    0.0000 H   0  0  0  0  0  0  0  0  0  0  0  0
   14.3504   -0.2064    0.0000 H   0  0  0  0  0  0  0  0  0  0  0  0
   12.4831   -1.2845    0.0000 H   0  0  0  0  0  0  0  0  0  0  0  0
   12.4831   -2.0815    0.0000 H   0  0  0  0  0  0  0  0  0  0  0  0
   14.3754   -1.8951    0.0000 H   0  0  0  0  0  0  0  0  0  0  0  0
   15.0657   -2.2936    0.0000 H   0  0  0  0  0  0  0  0  0  0  0  0
   13.9330   -2.9476    0.0000 H   0  0  0  0  0  0  0  0  0  0  0  0
   13.9330   -2.1505    0.0000 H   0  0  0  0  0  0  0  0  0  0  0  0
   13.2680    0.5860    0.0000 H   0  0  0  0  0  0  0  0  0  0  0  0
   15.9580   -2.3030    0.0000 H   0  0  0  0  0  0  0  0  0  0  0  0
   16.5780   -1.6830    0.0000 H   0  0  0  0  0  0  0  0  0  0  0  0
   15.9580   -1.0630    0.0000 H   0  0  0  0  0  0  0  0  0  0  0  0
   12.4211   -3.1051    0.0000 H   0  0  0  0  0  0  0  0  0  0  0  0
   12.6480   -3.9520    0.0000 H   0  0  0  0  0  0  0  0  0  0  0  0
   13.4950   -3.7251    0.0000 H   0  0  0  0  0  0  0  0  0  0  0  0
   11.7680    1.4520    0.0000 H   0  0  0  0  0  0  0  0  0  0  0  0
    2.3291    1.6051    0.0000 H   0  0  0  0  0  0  0  0  0  0  0  0
    3.7320    4.0351    0.0000 H   0  0  0  0  0  0  0  0  0  0  0  0
    5.4641    0.7951    0.0000 H   0  0  0  0  0  0  0  0  0  0  0  0
    8.0622    2.5351    0.0000 H   0  0  0  0  0  0  0  0  0  0  0  0
    8.0622   -0.7049    0.0000 H   0  0  0  0  0  0  0  0  0  0  0  0
    6.6592    0.1051    0.0000 H   0  0  0  0  0  0  0  0  0  0  0  0
    3.1120    0.4151    0.0000 H   0  0  0  0  0  0  0  0  0  0  0  0
    3.7320   -0.2049    0.0000 H   0  0  0  0  0  0  0  0  0  0  0  0
    4.3520    0.4151    0.0000 H   0  0  0  0  0  0  0  0  0  0  0  0
    5.7741    2.8781    0.0000 H   0  0  0  0  0  0  0  0  0  0  0  0
    6.0010    3.7251    0.0000 H   0  0  0  0  0  0  0  0  0  0  0  0
    5.1541    3.9520    0.0000 H   0  0  0  0  0  0  0  0  0  0  0  0
    2.3100    3.9520    0.0000 H   0  0  0  0  0  0  0  0  0  0  0  0
    1.4631    3.7251    0.0000 H   0  0  0  0  0  0  0  0  0  0  0  0
    1.6900    2.8781    0.0000 H   0  0  0  0  0  0  0  0  0  0  0  0
  1 16  1  0  0  0  0
  1 20  1  0  0  0  0
  2 15  2  0  0  0  0
  3 27  2  0  0  0  0
  4  8  1  0  0  0  0
  4 15  1  0  0  0  0
  4 42  1  0  0  0  0
  5 15  1  0  0  0  0
  5 16  1  0  0  0  0
  5 49  1  0  0  0  0
  6 17  1  0  0  0  0
  6 27  1  0  0  0  0
  6 52  1  0  0  0  0
  7 16  2  0  0  0  0
  7 21  1  0  0  0  0
  8  9  1  0  0  0  0
  8 10  1  0  0  0  0
  8 33  1  0  0  0  0
  9 11  1  0  0  0  0
  9 34  1  0  0  0  0
  9 35  1  0  0  0  0
 10 12  1  0  0  0  0
 10 36  1  0  0  0  0
 10 37  1  0  0  0  0
 11 13  1  0  0  0  0
 11 38  1  0  0  0  0
 11 39  1  0  0  0  0
 12 14  1  0  0  0  0
 12 40  1  0  0  0  0
 12 41  1  0  0  0  0
 13 43  1  0  0  0  0
 13 44  1  0  0  0  0
 13 45  1  0  0  0  0
 14 46  1  0  0  0  0
 14 47  1  0  0  0  0
 14 48  1  0  0  0  0
 17 18  2  0  0  0  0
 17 19  1  0  0  0  0
 18 24  1  0  0  0  0
 18 30  1  0  0  0  0
 19 25  2  0  0  0  0
 19 31  1  0  0  0  0
 20 21  2  0  0  0  0
 20 26  1  0  0  0  0
 21 28  1  0  0  0  0
 22 24  2  0  0  0  0
 22 25  1  0  0  0  0
 22 32  1  0  0  0  0
 23 26  2  0  0  0  0
 23 27  1  0  0  0  0
 23 29  1  0  0  0  0
 24 50  1  0  0  0  0
 25 51  1  0  0  0  0
 26 53  1  0  0  0  0
 28 29  2  0  0  0  0
 28 54  1  0  0  0  0
 29 55  1  0  0  0  0
 30 56  1  0  0  0  0
 30 57  1  0  0  0  0
 30 58  1  0  0  0  0
 31 59  1  0  0  0  0
 31 60  1  0  0  0  0
 31 61  1  0  0  0  0
 32 62  1  0  0  0  0
 32 63  1  0  0  0  0
 32 64  1  0  0  0  0
M  END
> <PUBCHEM_COMPOUND_CID>
22634411

> <PUBCHEM_COMPOUND_CANONICALIZED>
1

> <PUBCHEM_CACTVS_COMPLEXITY>
615

> <PUBCHEM_CACTVS_HBOND_ACCEPTOR>
4

> <PUBCHEM_CACTVS_HBOND_DONOR>
3

> <PUBCHEM_CACTVS_ROTATABLE_BOND>
8

> <PUBCHEM_CACTVS_SUBSKEYS>
AAADcfB7sABAAAAAAAAAAAAAAAAAAWAAAAAwYAAAAAAAAFgB9AAAHgQQAAAADCjB3gQz0bLIEAisAyVydACD8KllCjlJmL04ZNiIILLglZGEIQholwLIyacYiUCeCAACgAACAQAQAAUAAAQCAAAAAAAAAA==

> <PUBCHEM_IUPAC_OPENEYE_NAME>
2-(1-propylbutylcarbamoylamino)-N-(2,4,6-trimethylphenyl)-1,3-benzothiazole-6-carboxamide

> <PUBCHEM_IUPAC_CAS_NAME>
2-[[(heptan-4-ylamino)-oxomethyl]amino]-N-(2,4,6-trimethylphenyl)-1,3-benzothiazole-6-carboxamide

> <PUBCHEM_IUPAC_NAME_MARKUP>
2-(heptan-4-ylcarbamoylamino)-<I>N</I>-(2,4,6-trimethylphenyl)-1,3-benzothiazole-6-carboxamide

> <PUBCHEM_IUPAC_NAME>
2-(heptan-4-ylcarbamoylamino)-N-(2,4,6-trimethylphenyl)-1,3-benzothiazole-6-carboxamide

> <PUBCHEM_IUPAC_SYSTEMATIC_NAME>
2-(heptan-4-ylcarbamoylamino)-N-(2,4,6-trimethylphenyl)-1,3-benzothiazole-6-carboxamide

> <PUBCHEM_IUPAC_TRADITIONAL_NAME>
N-mesityl-2-(1-propylbutylcarbamoylamino)-1,3-benzothiazole-6-carboxamide

> <PUBCHEM_IUPAC_INCHI>
InChI=1S/C25H32N4O2S/c1-6-8-19(9-7-2)26-24(31)29-25-27-20-11-10-18(14-21(20)32-25)23(30)28-22-16(4)12-15(3)13-17(22)5/h10-14,19H,6-9H2,1-5H3,(H,28,30)(H2,26,27,29,31)

> <PUBCHEM_IUPAC_INCHIKEY>
NIWZDOAZPHQHCR-UHFFFAOYSA-N

> <PUBCHEM_XLOGP3_AA>
6.2

> <PUBCHEM_EXACT_MASS>
452.22459745

> <PUBCHEM_MOLECULAR_FORMULA>
C25H32N4O2S

> <PUBCHEM_MOLECULAR_WEIGHT>
452.6

> <PUBCHEM_SMILES>
CCCC(CCC)NC(=O)NC1=NC2=C(S1)C=C(C=C2)C(=O)NC3=C(C=C(C=C3C)C)C

> <PUBCHEM_OPENEYE_CAN_SMILES>
CCCC(CCC)NC(=O)NC1=NC2=C(S1)C=C(C=C2)C(=O)NC3=C(C=C(C=C3C)C)C

> <PUBCHEM_OPENEYE_ISO_SMILES>
CCCC(CCC)NC(=O)NC1=NC2=C(S1)C=C(C=C2)C(=O)NC3=C(C=C(C=C3C)C)C

> <PUBCHEM_CACTVS_TPSA>
111

> <PUBCHEM_MONOISOTOPIC_WEIGHT>
452.22459745

> <PUBCHEM_TOTAL_CHARGE>
0

> <PUBCHEM_HEAVY_ATOM_COUNT>
32

> <PUBCHEM_ATOM_DEF_STEREO_COUNT>
0

> <PUBCHEM_ATOM_UDEF_STEREO_COUNT>
0

> <PUBCHEM_BOND_DEF_STEREO_COUNT>
0

> <PUBCHEM_BOND_UDEF_STEREO_COUNT>
0

> <PUBCHEM_ISOTOPIC_ATOM_COUNT>
0

> <PUBCHEM_COMPONENT_COUNT>
1

> <PUBCHEM_CACTVS_TAUTO_COUNT>
-1

> <PUBCHEM_COORDINATE_TYPE>
1
5
255

> <PUBCHEM_BONDANNOTATIONS>
1  16  8
1  20  8
17  18  8
17  19  8
18  24  8
19  25  8
20  21  8
20  26  8
21  28  8
22  24  8
22  25  8
23  26  8
23  29  8
28  29  8
7  16  8
7  21  8

$$$$
